52
0 1
Re	-3.301445	 8.322556	 13.376839
I 	-1.875608	 10.652794	 13.927386
I 	-5.307241	 10.167409	 12.800783
P 	-1.712319	 7.260989	 14.887829
C 	-2.064996	 6.653048	 12.494322
C 	-3.425838	 6.282652	 12.399972
C 	-4.011902	 7.238994	 11.535102
C 	-3.027863	 8.170703	 11.079079
C 	-1.802311	 7.820542	 11.662648
C 	-4.058866	 5.042134	 12.945103
H 	-4.123541	 4.384043	 12.247965
H 	-4.935175	 5.248007	 13.273579
H 	-3.520493	 4.697252	 13.661460
C 	-5.415344	 7.099986	 10.986477
H 	-5.409437	 6.487645	 10.247406
H 	-5.729104	 7.956911	 10.691198
H 	-5.994884	 6.766542	 11.674879
C 	-3.255715	 9.239660	 10.070937
H 	-3.326577	 8.847269	 9.197331
H 	-2.520843	 9.856399	 10.086662
H 	-4.068348	 9.706833	 10.278856
C 	-0.425760	 8.417047	 11.400566
H 	-0.000387	 7.939315	 10.685956
H 	 0.108925	 8.347542	 12.195548
H 	-0.518975	 9.341716	 11.157704
C 	-1.096080	 6.157720	 13.561869
H 	-0.169448	 6.330161	 13.332984
H 	-1.220444	 5.218974	 13.771535
C 	-0.267892	 8.119674	 15.621834
C 	 0.968819	 8.027295	 15.153581
H 	 1.126824	 7.508213	 14.398784
C 	 2.032774	 8.679227	 15.754622
H 	 2.895620	 8.590367	 15.419157
C 	 1.785471	 9.460489	 16.857113
H 	 2.482965	 9.935581	 17.250236
C 	 0.542683	 9.546710	 17.376036
H 	 0.393281	 10.038518	 18.151798
C 	-0.514997	 8.899177	 16.748786
H 	-1.381129	 8.986277	 17.079010
C 	-2.262626	 6.214907	 16.259567
C 	-1.790928	 4.944476	 16.432541
H 	-1.246581	 4.572321	 15.777336
C 	-2.094652	 4.204564	 17.536779
H 	-1.774331	 3.335322	 17.627634
C 	-2.882882	 4.767636	 18.515219
H 	-3.109258	 4.267030	 19.264773
C 	-3.339208	 6.053024	 18.398156
H 	-3.844840	 6.429578	 19.081316
C 	-3.046535	 6.792936	 17.264214
H 	-3.367952	 7.661298	 17.171612
C 	-4.609930	 7.907642	 14.639900
O 	-5.447376	 7.616429	 15.254919
