17
Properties=species:S:1:pos:R:3 pbc="F F F"
N        1.05201960      -0.02612999      -0.56285977
C        2.49406910      -0.10028996      -0.27405989
C        3.06552887       1.26929951       0.18435994
N        2.20652914       1.85257924       1.22851956
C        4.49974823       1.13411963       0.60974979
C        5.10584784       1.87875926       1.77434933
O        4.71070814       0.50182980       1.88248920
H        0.73237973      -0.93957967      -0.88283962
H        0.89989966       0.61712980      -1.34043956
H        3.02821898      -0.44824985      -1.16523957
H        2.64631915      -0.85171968       0.51007980
H        3.03423882       1.95578933      -0.67085975
H        2.32171917       1.27486956       2.06420922
H        1.24328947       1.64998937       0.93640965
H        5.15266800       0.85074967      -0.20751993
H        4.51270866       2.61775899       2.29924893
H        6.16697741       2.09296918       1.75087929
