15
Properties=species:S:1:pos:R:3 pbc="F F F"
C        0.90050966      -0.06409997      -0.06684997
N        2.34903908      -0.08274997       0.15744995
C        2.95832896      -1.41270947       0.09224997
C        3.09263873       1.08631968       0.04142999
C        4.42223883       1.25154960       0.04835998
C        5.02015829       2.53382897      -0.07793997
N        5.51564789       3.57683873      -0.18339993
H        0.45598984       0.87300962       0.28586990
H        0.40851983      -0.87778968       0.47688982
H        0.68289971      -0.17378993      -1.13425958
H        2.24359918      -2.19664907       0.36474985
H        3.79889870      -1.49131942       0.78973967
H        3.31766891      -1.61605930      -0.92198968
H        2.45601916       1.96728921      -0.05812998
H        5.09262848       0.40926987       0.15226994
