13
Properties=species:S:1:pos:R:3 pbc="F F F"
O        1.34937954      -0.01957999       0.88238966
C        2.34360909       0.10711996       0.18063992
N        2.90241885       1.29089952      -0.18983993
C        2.69494915       2.61171913       0.37059987
C        3.86163855       3.06068897      -0.52047980
C        4.22604847       1.58065939      -0.70004976
H        2.89097905      -0.75857967      -0.22439991
H        2.88265872       2.65418911       1.44768941
H        1.72427928       3.05166888       0.12902996
H        3.54710865       3.55616856      -1.44644952
H        4.61947823       3.67482853      -0.02724999
H        4.38642836       1.25947952      -1.73111939
H        5.02431822       1.21103954      -0.05058998
