22
Properties=species:S:1:pos:R:3 pbc="F F F"
C        2.65130901      -1.54597938      -0.22173992
C        3.96146870      -0.76943970      -0.38630986
C        4.19990873      -0.48296982      -1.87062931
N        3.86385846       0.45037982       0.42237985
C        5.05113792       1.31376958       0.43790984
C        4.69354820       2.57751894       1.22565949
C        6.27070808       0.64102978       1.06929970
H        2.47598910      -1.80631924       0.82843965
H        2.68049908      -2.48151898      -0.79107970
H        1.79153931      -0.96452963      -0.57505977
H        4.76739788      -1.40981936      -0.01162999
H        3.45141888       0.21062993      -2.26947927
H        4.14461851      -1.40670943      -2.45608902
H        5.19174814      -0.05338998      -2.04338932
H        3.61702847       0.20123993       1.38064945
H        5.30105782       1.63309944      -0.57991976
H        4.44882822       2.34806895       2.26911926
H        3.83270860       3.08836889       0.77956975
H        5.53168821       3.28287864       1.22495949
H        6.04738760       0.26852989       2.07519913
H        7.10131741       1.35050941       1.15324962
H        6.62466764      -0.19940992       0.46433982
