20
Properties=species:S:1:pos:R:3 pbc="F F F"
C        3.01034880      -1.08988965      -0.15326993
C        2.65453911      -0.02908999       0.88208967
C        3.51321864       1.24881959       0.77013975
C        3.05356884       2.33127928       1.77549922
N        1.68446934       2.78794909       1.53529942
C        4.97886801       0.94562966       1.00751960
C        5.94831800       1.16563964       0.11076996
H        2.31082916      -1.92926931      -0.08466997
H        4.01802826      -1.48565948       0.00483000
H        2.95193887      -0.68312973      -1.16778958
H        2.74932909      -0.46315983       1.88549936
H        1.59625947       0.22482991       0.74839967
H        3.39029860       1.65374947      -0.24431990
H        3.72069860       3.20004892       1.71662939
H        3.11750889       1.94519925       2.79993892
H        1.62364936       3.20157886       0.60563976
H        1.46025944       3.53314853       2.19359922
H        5.24337816       0.51829982       1.97384930
H        5.73722744       1.58436942      -0.86858970
H        6.98208714       0.92336965       0.33931988
