15
Properties=species:S:1:pos:R:3 pbc="F F F"
C        1.02583957      -0.02294999      -0.00669000
N        2.46649909       0.04520998       0.00041000
C        3.23570895       1.17051959       0.00429000
C        4.53985834       0.73515975       0.01063000
C        4.45453835      -0.67638969       0.01003000
C        5.57058811      -1.65163934       0.01529999
N        3.18201876      -1.09295964       0.00345000
H        0.61312979       0.98886961       0.00098000
H        0.70165974      -0.56461978       0.88546968
H        0.71008974      -0.54793978      -0.91173965
H        2.80611897       2.16157913       0.00225000
H        5.43071795       1.34668958       0.01508999
H        5.20542812      -2.68398905       0.02320999
H        6.19761753      -1.50751948       0.90110964
H        6.19495773      -1.51989949      -0.87428963
